/*--------------------------------*- C++ -*----------------------------------*\
| =========                 |                                                 |
| \\      /  F ield         | OpenFOAM: The Open Source CFD Toolbox           |
|  \\    /   O peration     | Version:  v1806                                 |
|   \\  /    A nd           | Web:      www.OpenFOAM.com                      |
|    \\/     M anipulation  |                                                 |
\*---------------------------------------------------------------------------*/
FoamFile
{
    version     2.0;
    format      ascii;
    class       volScalarField;
    object      p;
}
// * * * * * * * * * * * * * * * * * * * * * * * * * * * * * * * * * * * * * //

dimensions      [0 2 -2 0 0 0 0];

internalField   uniform 0;

boundaryField
{
    #includeEtc "caseDicts/setConstraintTypes"

    "(walls|rollerWall1|rollerWall2)"
    {
        type            zeroGradient;
    }

   outlet
   {
        type            fixedValue;
        value           uniform 0;
       
   }
   inlet
   {
       type            zeroGradient;
   }


    overset1
    {
        type            overset;
    }
    overset2
    {
        type            overset;
    }
}

// ************************************************************************* //
